*Heading
** Job name: ColdForging Model name: ColdForging
** Generated by: Abaqus/CAE 2017
*Preprint, echo=NO, model=NO, history=NO, contact=NO
**
** PARTS
**
*Part, name=Billet
*Node
      1,           0.,          22.
      2,           0.,    20.706459
      3,           0.,    19.423275
      4,           0.,   18.1503658
      5,           0.,   16.8876476
      6,           0.,   15.6350393
      7,           0.,   14.3924608
      8,           0.,    13.159831
      9,           0.,   11.9370699
     10,           0.,   10.7240992
     11,           0.,   9.52084064
     12,           0.,   8.32721615
     13,           0.,   7.14314842
     14,           0.,   5.96856117
     15,           0.,   4.80337858
     16,           0.,   3.64752483
     17,           0.,   2.50092554
     18,           0.,   1.36350691
     19,           0.,  0.235195115
     20,           0., -0.884082735
** ... 2940 like lines cut
*Element, type=CAX4RT
   1,    1,    2,  150,  149
   2,    2,    3,  151,  150
   3,    3,    4,  152,  151
   4,    4,    5,  153,  152
   5,    5,    6,  154,  153
   6,    6,    7,  155,  154
   7,    7,    8,  156,  155
   8,    8,    9,  157,  156
   9,    9,   10,  158,  157
  10,   10,   11,  159,  158
  11,   11,   12,  160,  159
  12,   12,   13,  161,  160
  13,   13,   14,  162,  161
  14,   14,   15,  163,  162
  15,   15,   16,  164,  163
  16,   16,   17,  165,  164
  17,   17,   18,  166,  165
  18,   18,   19,  167,  166
  19,   19,   20,  168,  167
  20,   20,   21,  169,  168
** ... 2773 like lines cut
*Nset, nset=Symmetry_Axis, generate
   1,  148,    1
*Elset, elset=Symmetry_Axis, generate
   1,  147,    1
*Nset, nset=Body, generate
    1,  2960,     1
*Elset, elset=Body, generate
    1,  2793,     1
*Nset, nset=Bottom_Surface, generate
  148,  2960,   148
*Elset, elset=Bottom_Surface, generate
  147,  2793,   147
*Nset, nset=Top_Surface, generate
    1,  2813,   148
*Elset, elset=Top_Surface, generate
    1,  2647,   147
*Elset, elset=_Surrounding_Surfaces_S2, internal, generate
  147,  2793,   147
*Elset, elset=_Surrounding_Surfaces_S3, internal, generate
 2647,  2793,     1
*Elset, elset=_Surrounding_Surfaces_S4, internal, generate
    1,  2647,   147
*Surface, type=ELEMENT, name=Surrounding_Surfaces
_Surrounding_Surfaces_S2, S2
_Surrounding_Surfaces_S3, S3
_Surrounding_Surfaces_S4, S4
*Elset, elset=_Tools_Contact_Surface_S2, internal, generate
  147,  2793,   147
*Elset, elset=_Tools_Contact_Surface_S3, internal, generate
 2647,  2793,     1
*Elset, elset=_Tools_Contact_Surface_S4, internal, generate
    1,  2647,   147
*Surface, type=ELEMENT, name=Tools_Contact_Surface
_Tools_Contact_Surface_S2, S2
_Tools_Contact_Surface_S3, S3
_Tools_Contact_Surface_S4, S4
** Section: Billet
*Solid Section, elset=Body, controls=EC-1, material=MildSteel_20MnCr5_1
,
*End Part
**  
*Part, name=Die1
*Node
      1,           0.,        -190.
      2,           0.,        -200.
      3,           0.,        -170.
      4,    19.333334,        -200.
      5,   38.6666679,        -200.
      6,          58.,        -200.
      7,          58.,   116.891891
      8,          58.,   107.837837
      9,          58.,   89.7297287
     10,          58.,   80.6756744
     11,          58.,   62.5675659
     12,          58.,   53.5135117
     13,          58.,    35.405407
     14,          58.,   26.3513508
     15,          58.,   8.24324322
     16,          58., -0.810810804
     17,          58.,  -18.9189186
     18,          58.,  -37.0270271
     19,          58.,  -46.0810814
     20,          58.,  -64.1891861
** ... 449 like lines cut
*Element, type=CAX3T
 1, 286, 159, 213
 2, 218, 215, 158
 3, 239, 237, 460
 4, 310, 268, 286
 5, 221, 263, 287
 6, 269, 161, 160
 7, 462, 300, 468
 8, 312, 315, 292
 9, 374, 344, 303
10,  91, 383, 421
11, 461, 463, 304
12, 280, 305,  79
*Element, type=CAX4RT
 13, 210, 209, 262, 433
 14,  64, 412, 416, 423
 15,  95, 409, 416,   5
 16, 108, 409,  95,   6
 17, 137, 136, 188, 176
 18, 237, 176, 188, 247
 19, 209, 210, 153, 152
 20,  93, 422,   1,   2
 21, 211,  92,   1, 422
 22,  94, 412, 375,   4
 23,  28, 396, 395,  29
 24, 107, 408, 396,  28
 25, 277,  63, 318, 275
 26, 177, 185, 140, 139
 27, 190, 230, 238, 177
 28, 413, 396, 408,  62
 29, 408, 397, 426,  62
 30, 309, 371,  66, 469
 31, 186, 178,  57, 142
 32, 191, 192, 141,  56
** ... 381 like lines cut
*Nset, nset=Symmetry_Axis
  1,  2,  3, 92
*Elset, elset=Symmetry_Axis
  20,  21, 168
*Nset, nset=Machine_Contact_Surfaces
   2,   4,   5,   6,   7,   8,   9,  10,  11,  12,  13,  14,  15,  16,  17,  18
  19,  20,  21,  22,  23,  24,  25,  26,  27,  28,  29,  30,  31,  32,  93,  94
  95,  96,  97,  98,  99, 100, 101, 102, 103, 104, 105, 106, 107, 108, 109
*Elset, elset=Machine_Contact_Surfaces
  15,  16,  20,  22,  23,  24,  33,  34,  41,  42,  51,  58,  67,  72,  77,  94
  97, 100, 103, 107, 109, 110, 132, 133, 134, 135, 136, 137, 139, 140, 141, 142
 319, 325, 346, 356, 361, 364, 367, 383, 385, 386, 396, 397
*Nset, nset=Body, generate
   1,  469,    1
*Elset, elset=Body, generate
   1,  413,    1
*Elset, elset=_Billet_Contact_Surfaces_S2, internal
  44,  49,  70,  74,  84,  98, 101, 169, 170, 181
*Elset, elset=_Billet_Contact_Surfaces_S4, internal
  56,  80,  89, 105, 110, 123, 125, 126, 127, 128, 131, 143, 144, 145, 146, 147
 150, 168, 179
*Elset, elset=_Billet_Contact_Surfaces_S3, internal
  19,  26,  31,  32,  36,  54, 130, 151, 152, 156, 157, 159, 160, 161, 163, 164
 165, 166, 190
*Elset, elset=_Billet_Contact_Surfaces_S1, internal
  17,  35,  39,  50,  53,  60,  61,  65,  69,  81,  82, 149, 153, 158, 162, 167
 173, 189, 191, 199, 214, 216, 219, 223, 381
*Surface, type=ELEMENT, name=Billet_Contact_Surfaces
_Billet_Contact_Surfaces_S2, S2
_Billet_Contact_Surfaces_S4, S4
_Billet_Contact_Surfaces_S3, S3
_Billet_Contact_Surfaces_S1, S1
** Region: (Die:Body), (Controls:Default)
*Elset, elset=_I1, internal, generate
  1,  12,   1
** Section: Die
*Solid Section, elset=_I1, material=ToolSteel
,
** Region: (Die:Body), (Controls:EC-1)
*Elset, elset=_I2, internal, generate
  13,  413,    1
** Section: Die
*Solid Section, elset=_I2, controls=EC-1, material=ToolSteel
,
*End Part
**  
*Part, name=Die2
*Node
      1,           0.,  -97.8783264
      2,          58.,  -97.8783264
      3,          58.,   77.6281815
      4,   36.2980461,   77.6281815
      5,   34.1002045,   76.9702606
      6,   29.2043018,   73.7505875
      7,   27.8908768,   73.1381912
      8,   26.4570007,   72.9281845
      9,   23.0499992,   72.9281845
     10,   18.8925419,   70.1502609
     11,   21.3279247,     72.58564
     12,   18.5499992,   68.4281845
     13,   18.5499992,   17.9781837
     14,   18.3784981,   16.6798744
     15,   16.7529011,   10.6341715
     16,   16.6499996,   9.85518646
     17,   16.6499996,  -20.0248127
     18,   16.4796295,  -21.3189087
     19,   15.1272221,  -26.3661594
     20,   15.0249996,  -27.1426163
** ... 556 like lines cut
*Element, type=CAX3T
 1, 522, 117,  22
 2, 234,  23,  24
 3, 190, 142, 141
 4, 237, 165, 195
 5, 284, 248, 550
 6, 110, 521,  27
 7, 521, 110, 297
 8, 508, 345, 426
 9, 250, 285, 247
10, 478, 421, 427
11, 437, 373, 288
12, 565, 370, 385
13, 507, 445, 366
14, 274, 188, 271
15, 569, 370, 446
*Element, type=CAX4RT
 16, 173, 219, 213, 174
 17,  94,  19, 145, 121
 18, 225, 267, 266, 228
 19, 140, 525,  15,  16
 20,  16,  93, 353, 140
 21,  66, 122, 149,   5
 22, 122,  66,   6, 120
 23, 148,   7,   8, 523
 24, 209, 204, 154, 152
 25, 138, 137, 155, 164
 26, 126, 125, 150, 157
 27, 339, 315, 308, 309
 28,  83, 138, 139,  12
 29, 139, 190, 141, 529
 30,  10, 529, 141,  67
 31, 108, 166, 527,  20
 32, 246, 325, 552, 215
 33, 116, 233, 532, 522
 34, 433, 448, 429, 342
 35, 279, 540, 442, 330
** ... 490 like lines cut
*Nset, nset=Body, generate
   1,  576,    1
*Elset, elset=Body, generate
   1,  525,    1
*Nset, nset=Symmetry_Axis
   1,  28, 111, 112, 113, 114, 115
*Elset, elset=Symmetry_Axis
 101, 103, 355, 398, 400, 401
*Nset, nset=Machine_Contact_Surfaces
  1,  2,  3,  4, 29, 30, 31, 32, 33, 34, 35, 36, 37, 38, 39, 40
 41, 42, 43, 44, 45, 46, 47, 48, 49, 50, 51, 52, 53, 54, 55, 56
 57, 58, 59, 60, 61, 62, 63, 64, 65
*Elset, elset=Machine_Contact_Surfaces
  45,  46,  47,  71,  72,  73, 103, 139, 192, 233, 274, 302, 304, 324, 329, 330
 346, 356, 360, 364, 378, 387, 389, 390, 406, 408, 410, 411, 412, 413, 414, 415
 421, 422, 423, 424, 429, 432
*Elset, elset=_Billet_Contact_Surfaces_S1, internal
  17,  20,  36,  40,  47,  60,  88,  90,  92,  93,  94,  95,  96, 110, 128, 134
 159, 161, 163, 166, 170, 180, 220, 233
*Elset, elset=_Billet_Contact_Surfaces_S2, internal
   2,  22,  23,  71,  75,  78,  83,  84,  85, 107, 112, 116, 119, 231, 315, 519
*Elset, elset=_Billet_Contact_Surfaces_S4, internal
  21,  28,  30,  31,  38,  50,  69,  72,  73,  74,  76,  77,  79,  80,  81,  82
 101, 109, 129, 133, 139, 192
*Elset, elset=_Billet_Contact_Surfaces_S3, internal
   6,  19,  86,  87,  89,  91,  97,  98,  99, 100, 113, 132, 174, 181
*Surface, type=ELEMENT, name=Billet_Contact_Surfaces
_Billet_Contact_Surfaces_S1, S1
_Billet_Contact_Surfaces_S2, S2
_Billet_Contact_Surfaces_S4, S4
_Billet_Contact_Surfaces_S3, S3
** Region: (Die:Body), (Controls:Default)
*Elset, elset=_I1, internal, generate
  1,  15,   1
** Section: Die
*Solid Section, elset=_I1, material=ToolSteel
,
** Region: (Die:Body), (Controls:EC-1)
*Elset, elset=_I2, internal, generate
  16,  525,    1
** Section: Die
*Solid Section, elset=_I2, controls=EC-1, material=ToolSteel
,
*End Part
**  
*Part, name=Punch1
*Node
      1,           0.,           4.
      2,           0.,         0.25
      3,           0.,         -3.5
      4,           0.,        -7.25
      5,           0.,         -11.
      6,           0.,       -14.75
      7,           0.,        -18.5
      8,           0.,       -22.25
      9,           0.,         -26.
     10,   3.90714288,           4.
     11,   3.90714288,         0.25
     12,   3.90714288,         -3.5
     13,   3.90714288,        -7.25
     14,   3.90714288,         -11.
     15,   3.90714288,       -14.75
     16,   3.90714288,        -18.5
     17,   3.90714288,       -22.25
     18,   3.90714288,         -26.
     19,   7.81428576,           4.
     20,   7.81428576,         0.25
** ... 52 like lines cut
*Element, type=CAX4RT
 1,  1,  2, 11, 10
 2,  2,  3, 12, 11
 3,  3,  4, 13, 12
 4,  4,  5, 14, 13
 5,  5,  6, 15, 14
 6,  6,  7, 16, 15
 7,  7,  8, 17, 16
 8,  8,  9, 18, 17
 9, 10, 11, 20, 19
10, 11, 12, 21, 20
11, 12, 13, 22, 21
12, 13, 14, 23, 22
13, 14, 15, 24, 23
14, 15, 16, 25, 24
15, 16, 17, 26, 25
16, 17, 18, 27, 26
17, 19, 20, 29, 28
18, 20, 21, 30, 29
19, 21, 22, 31, 30
20, 22, 23, 32, 31
** ... 36 like lines cut
*Nset, nset=Symmetry_Axis, generate
 1,  9,  1
*Elset, elset=Symmetry_Axis, generate
 1,  8,  1
*Nset, nset=Machine_Contact_Surface, generate
  1,  64,   9
*Elset, elset=Machine_Contact_Surface, generate
  1,  49,   8
*Nset, nset=Body, generate
  1,  72,   1
*Elset, elset=Body, generate
  1,  56,   1
*Elset, elset=_Billet_Contact_Surface_S2, internal, generate
  8,  56,   8
*Surface, type=ELEMENT, name=Billet_Contact_Surface
_Billet_Contact_Surface_S2, S2
** Section: Punch
*Solid Section, elset=Body, controls=EC-1, material=ToolSteel
,
*End Part
**  
*Part, name=Punch2
*Node
      1,           0.,   3.96727371
      2,   25.8500004,   3.96727371
      3,   35.5885735,  -19.7424583
      4,   36.5628548,  -21.2084064
      5,   38.0249367,  -22.1884785
      6,   39.7511253,  -22.5327263
      7,          50.,  -22.5327263
      8,          50.,   27.4672737
      9,           0.,   27.4672737
     10,   2.87222219,   3.96727371
     11,   5.74444437,   3.96727371
     12,   8.61666679,   3.96727371
     13,   11.4888887,   3.96727371
     14,   14.3611107,   3.96727371
     15,   17.2333336,   3.96727371
     16,   20.1055565,   3.96727371
     17,   22.9777775,   3.96727371
     18,   26.9320641,   1.33285904
     19,   28.0141277,  -1.30155551
     20,   29.0961914,  -3.93597007
** ... 156 like lines cut
*Element, type=CAX3T
1, 165, 149, 148
2, 174, 124, 128
3,  81, 106,  77
*Element, type=CAX4RT
  4,  50,  49,  83, 110
  5, 148, 149, 167, 140
  6,  93,  80,  74,  98
  7,  59,  19,  20,  60
  8,   4,   5,  73, 170
  9, 170,  54, 172, 171
 10,  25, 172,  62,  24
 11,  12,  63,  65,  11
 12,  63,  12,  13,  64
 13,  66,  14,  15,  67
 14,  14,  66,  64,  13
 15,  16,  68,  67,  15
 16,  19,  59,  58,  18
 17,  21,  56,  60,  20
 18, 116, 129, 130, 115
 19,  57,  23,  24,  62
 20,  77, 106,  95,  78
 21, 111, 108,  70,  71
 22, 170,  73, 124,  54
 23,  39,  70,  27,   7
** ... 127 like lines cut
*Nset, nset=Body, generate
   1,  176,    1
*Elset, elset=Body, generate
   1,  150,    1
*Nset, nset=Symmetry_Axis
  1,  9, 49, 50, 51, 52, 53
*Elset, elset=Symmetry_Axis
   4,  34,  43,  47,  96, 123
*Nset, nset=Machine_Contact_Surface
  8,  9, 40, 41, 42, 43, 44, 45, 46, 47, 48
*Elset, elset=Machine_Contact_Surface
  24,  25,  34, 104, 124, 125, 128, 131, 138, 140
*Elset, elset=_Billet_Contact_Surfaces_S4, internal
 10, 11, 14, 15, 16, 17, 32, 40, 63
*Elset, elset=_Billet_Contact_Surfaces_S2, internal
  7, 12, 13, 19, 43, 44, 49, 50, 58, 68, 69
*Elset, elset=_Billet_Contact_Surfaces_S3, internal
  23, 149
*Elset, elset=_Billet_Contact_Surfaces_S1, internal
   8, 148
*Surface, type=ELEMENT, name=Billet_Contact_Surfaces
_Billet_Contact_Surfaces_S4, S4
_Billet_Contact_Surfaces_S2, S2
_Billet_Contact_Surfaces_S3, S3
_Billet_Contact_Surfaces_S1, S1
** Region: (Punch:Body), (Controls:Default)
*Elset, elset=_I1, internal, generate
 1,  3,  1
** Section: Punch
*Solid Section, elset=_I1, material=ToolSteel
,
** Region: (Punch:Body), (Controls:EC-1)
*Elset, elset=_I2, internal, generate
   4,  150,    1
** Section: Punch
*Solid Section, elset=_I2, controls=EC-1, material=ToolSteel
,
*End Part
**  
**
** ASSEMBLY
**
*Assembly, name=Assembly
**  
*Instance, name=Die1-1, part=Die1
          0.,        -155.,           0.
*End Instance
**  
*Instance, name=Billet-1, part=Billet
 1.77635683940025e-15,         -42.,           0.
*End Instance
**  
*Instance, name=Punch1-1, part=Punch1
          0.,          6.5,           0.
*End Instance
**  
*Instance, name=Punch2-1, part=Punch2
          0., -111.967273712158,           0.
*End Instance
**  
*Instance, name=Die2-1, part=Die2
          0., -294.928183080021,           0.
*End Instance
**  
*Node
      1,           0.,         10.5,           0.
*Node
      2,          58.,        -355.,           0.
*Node
      3,           0.,        -84.5,           0.
*Node
      4,          58.,  -392.806519,           0.
*Nset, nset=Tools1, instance=Die1-1, generate
   1,  469,    1
*Nset, nset=Tools1, instance=Punch1-1, generate
  1,  72,   1
*Elset, elset=Tools1, instance=Die1-1, generate
   1,  413,    1
*Elset, elset=Tools1, instance=Punch1-1, generate
  1,  56,   1
*Nset, nset=Tools2, instance=Punch2-1, generate
   1,  176,    1
*Nset, nset=Tools2, instance=Die2-1, generate
   1,  576,    1
*Elset, elset=Tools2, instance=Punch2-1, generate
   1,  150,    1
*Elset, elset=Tools2, instance=Die2-1, generate
   1,  525,    1
*Nset, nset=_PickedSet51, internal
 1,
*Nset, nset=_PickedSet58, internal
 1,
*Nset, nset=_PickedSet62, internal, instance=Billet-1, generate
    1,  2960,     1
*Elset, elset=_PickedSet62, internal, instance=Billet-1, generate
    1,  2793,     1
*Nset, nset=_PickedSet63, internal, instance=Billet-1, generate
    1,  2960,     1
*Elset, elset=_PickedSet63, internal, instance=Billet-1, generate
    1,  2793,     1
*Nset, nset=_PickedSet64, internal, instance=Billet-1, generate
    1,  2960,     1
*Elset, elset=_PickedSet64, internal, instance=Billet-1, generate
    1,  2793,     1
*Nset, nset=_PickedSet65, internal, instance=Billet-1, generate
    1,  2960,     1
*Elset, elset=_PickedSet65, internal, instance=Billet-1, generate
    1,  2793,     1
*Nset, nset=_PickedSet66, internal, instance=Billet-1, generate
    1,  2960,     1
*Elset, elset=_PickedSet66, internal, instance=Billet-1, generate
    1,  2793,     1
*Nset, nset=_PickedSet68, internal, instance=Billet-1, generate
    1,  2960,     1
*Elset, elset=_PickedSet68, internal, instance=Billet-1, generate
    1,  2793,     1
*Nset, nset=_PickedSet73, internal, instance=Billet-1, generate
    1,  2960,     1
*Elset, elset=_PickedSet73, internal, instance=Billet-1, generate
    1,  2793,     1
*Nset, nset=_PickedSet74, internal, instance=Billet-1, generate
    1,  2960,     1
*Elset, elset=_PickedSet74, internal, instance=Billet-1, generate
    1,  2793,     1
*Nset, nset=_PickedSet78, internal, instance=Billet-1, generate
    1,  2960,     1
*Elset, elset=_PickedSet78, internal, instance=Billet-1, generate
    1,  2793,     1
*Nset, nset=_PickedSet101, internal, instance=Billet-1, generate
    1,  2960,     1
*Elset, elset=_PickedSet101, internal, instance=Billet-1, generate
    1,  2793,     1
*Nset, nset=_PickedSet104, internal, instance=Billet-1, generate
    1,  2960,     1
*Elset, elset=_PickedSet104, internal, instance=Billet-1, generate
    1,  2793,     1
*Nset, nset=_PickedSet110, internal, instance=Billet-1, generate
    1,  2960,     1
*Elset, elset=_PickedSet110, internal, instance=Billet-1, generate
    1,  2793,     1
*Nset, nset=_PickedSet119, internal, instance=Billet-1, generate
    1,  2960,     1
*Elset, elset=_PickedSet119, internal, instance=Billet-1, generate
    1,  2793,     1
*Nset, nset=_PickedSet142, internal, instance=Billet-1, generate
    1,  2960,     1
*Elset, elset=_PickedSet142, internal, instance=Billet-1, generate
    1,  2793,     1
*Nset, nset=_PickedSet151, internal, instance=Billet-1, generate
    1,  2960,     1
*Elset, elset=_PickedSet151, internal, instance=Billet-1, generate
    1,  2793,     1
*Nset, nset=_PickedSet152, internal
 2,
*Nset, nset=_PickedSet157, internal, instance=Billet-1, generate
    1,  2960,     1
*Elset, elset=_PickedSet157, internal, instance=Billet-1, generate
    1,  2793,     1
*Nset, nset=_PickedSet208, internal
 1,
*Nset, nset=_PickedSet209, internal
 2,
*Nset, nset=_PickedSet220, internal
 3,
*Nset, nset=_PickedSet221, internal
 4,
*Nset, nset=_PickedSet233, internal
 3,
*Nset, nset=_PickedSet234, internal
 4,
*Nset, nset=_PickedSet235, internal
 2,
*Nset, nset=_PickedSet238, internal
 3,
*Nset, nset=_PickedSet239, internal
 4,
** Constraint: Die1_Rigidity
*Rigid Body, ref node=_PickedSet152, elset=Die1-1.Body
** Constraint: Die2_Rigidity
*Rigid Body, ref node=_PickedSet221, elset=Die2-1.Body
** Constraint: Punch1_Rigidity
*Rigid Body, ref node=_PickedSet51, elset=Punch1-1.Body
** Constraint: Punch2_Rigidity
*Rigid Body, ref node=_PickedSet220, elset=Punch2-1.Body
*End Assembly
** 
** ELEMENT CONTROLS
** 
*Section Controls, name=EC-1, second order accuracy=YES
1., 1., 1.
*Amplitude, name=Punch1_Speed
             0.,              0.,             0.1,             40.,            2.37,             40.,            2.47,              0.
*Amplitude, name=Punch2_Speed
             0.,              0.,             0.1,             40.,            1.89,             40.,            1.99,              0.
*Amplitude, name=Tools_RemovalSpeed
             0.,              0.,            0.25,           2000.,             0.5,              0.
** 
** MATERIALS
** 
*Material, name=MildSteel_20MnCr5_1
*Conductivity
 42.7493, 20.
 42.8068, 30.
 42.9128, 40.
 43.0066, 50.
 43.0883, 60.
 43.1578, 70.
 43.2152, 80.
 43.2606, 90.
 43.2939,100.
 43.3153,110.
 43.3247,120.
 43.3224,130.
 43.3084,140.
 43.2829,150.
  43.246,160.
 43.1978,170.
 43.1386,180.
 43.0684,190.
 42.9877,200.
 42.8965,210.
** ... 39 like lines cut
*Density
 7.81964e-09, 20.
 7.81817e-09, 30.
  7.8152e-09, 40.
 7.81222e-09, 50.
 7.80923e-09, 60.
 7.80622e-09, 70.
  7.8032e-09, 80.
 7.80017e-09, 90.
 7.79712e-09,100.
 7.79405e-09,110.
 7.79097e-09,120.
 7.78788e-09,130.
 7.78477e-09,140.
 7.78165e-09,150.
 7.77851e-09,160.
 7.77536e-09,170.
  7.7722e-09,180.
 7.76902e-09,190.
 7.76582e-09,200.
 7.76262e-09,210.
** ... 39 like lines cut
*Depvar
      5,
*Expansion, zero=20.
 1.25868e-05, 30.
 1.26229e-05, 40.
 1.26589e-05, 50.
 1.26949e-05, 60.
  1.2731e-05, 70.
  1.2767e-05, 80.
 1.28031e-05, 90.
 1.28391e-05,100.
 1.28752e-05,110.
 1.29113e-05,120.
 1.29473e-05,130.
 1.29834e-05,140.
 1.30195e-05,150.
 1.30556e-05,160.
 1.30917e-05,170.
 1.31279e-05,180.
  1.3164e-05,190.
 1.32001e-05,200.
 1.32362e-05,210.
 1.32724e-05,220.
** ... 38 like lines cut
*Inelastic Heat Fraction
          1.,
*Specific Heat
 4.4758e+08, 20.
 4.4982e+08, 30.
  4.542e+08, 40.
 4.5846e+08, 50.
 4.6263e+08, 60.
 4.6672e+08, 70.
 4.7075e+08, 80.
 4.7474e+08, 90.
  4.787e+08,100.
 4.8264e+08,110.
 4.8657e+08,120.
  4.905e+08,130.
 4.9443e+08,140.
 4.9839e+08,150.
 5.0237e+08,160.
 5.0637e+08,170.
 5.1042e+08,180.
  5.145e+08,190.
 5.1864e+08,200.
 5.2282e+08,210.
** ... 39 like lines cut
*User Material, constants=1
1.,
*Material, name=ToolSteel
*Conductivity
 46.6,
*Density
 7.81e-09,
*Elastic
210000., 0.3
*Specific Heat
 4.75e+08,
** 
** INTERACTION PROPERTIES
** 
*Surface Interaction, name=Tools_Billet_Contact
*Friction, taumax=10.
 0.05,
*Gap Conductance
2.,0.
0.,2.
*Gap Conductance, pressure
 0.,   0.
15.,  50.
40.,1000.
*Gap Heat Generation
1., 0.5
*Surface Interaction, name=Tools_Billet_Frictionless_Contact
*Friction
0.,
*Gap Conductance
2.,0.
0.,2.
*Gap Conductance, pressure
 0.,   0.
15.,  50.
40.,1000.
** 
** PHYSICAL CONSTANTS
** 
*Physical Constants, absolute zero=-273.15, stefan boltzmann=5.67e-11, universal gas=8314.47
** 
** PREDEFINED FIELDS
** 
** Name: Billet_InitialTemperature   Type: Temperature
*Initial Conditions, type=TEMPERATURE
Billet-1.Body, 20.
** Name: Tools1_InitialTemperature   Type: Temperature
*Initial Conditions, type=TEMPERATURE
Tools1, 20.
** Name: Tools2_InitialTemperature   Type: Temperature
*Initial Conditions, type=TEMPERATURE
Tools2, 20.
** ----------------------------------------------------------------
** 
** STEP: PreformForging
** 
*Step, name=PreformForging, nlgeom=YES
*Dynamic Temperature-displacement, Explicit
, 2.47
*Bulk Viscosity
0.06, 1.2
** Mass Scaling: Semi-Automatic
**               Whole Model
*Fixed Mass Scaling, factor=10000.
** 
** BOUNDARY CONDITIONS
** 
** Name: Billet_SymmetryAxis Type: Symmetry/Antisymmetry/Encastre
*Boundary
Billet-1.Symmetry_Axis, XSYMM
** Name: Die1_DisplacementConstraint Type: Symmetry/Antisymmetry/Encastre
*Boundary
_PickedSet235, ENCASTRE
** Name: Die1_Machine_ContactTemperature Type: Temperature
*Boundary
Die1-1.Machine_Contact_Surfaces, 11, 11, 20.
** Name: Die1_SymmetryAxis Type: Symmetry/Antisymmetry/Encastre
*Boundary
Die1-1.Symmetry_Axis, XSYMM
** Name: Punch1_Machine_ContactTemperature Type: Temperature
*Boundary
Punch1-1.Machine_Contact_Surface, 11, 11, 20.
** Name: Punch1_SymmetryAxis Type: Symmetry/Antisymmetry/Encastre
*Boundary
Punch1-1.Symmetry_Axis, XSYMM
** Name: Punch1_Velocity Type: Velocity/Angular velocity
*Boundary, amplitude=Punch1_Speed, type=VELOCITY
_PickedSet58, 1, 1
_PickedSet58, 2, 2, -1.
_PickedSet58, 6, 6
*Adaptive Mesh Controls, name=Ada-1, geometric enhancement=YES
1., 0., 0.
*Adaptive Mesh, elset=Billet-1.Body, controls=Ada-1, frequency=5, mesh sweeps=3, op=NEW
** 
** INTERACTIONS
** 
** Interaction: Die1_Billet_Contact
*Contact Pair, interaction=Tools_Billet_Contact, mechanical constraint=KINEMATIC, cpset=Die1_Billet_Contact
Die1-1.Billet_Contact_Surfaces, Billet-1.Tools_Contact_Surface
** Interaction: Punch1_Billet_Contact
*Contact Pair, interaction=Tools_Billet_Contact, mechanical constraint=KINEMATIC, cpset=Punch1_Billet_Contact
Punch1-1.Billet_Contact_Surface, Billet-1.Tools_Contact_Surface
** 
** OUTPUT REQUESTS
** 
*Restart, write, overlay, number interval=1, time marks=NO
** 
** FIELD OUTPUT: F-Output-1
** 
*Output, field, number interval=500
*Node Output
CF, NT, RF, RFL, U, V
*Element Output, directions=YES
E, ER, HFL, LE, MISES, S, SDV, TEMP
*Contact Output
CFORCE, CSTRESS
** 
** FIELD OUTPUT: F-Output-2
** 
*Output, field, filter=ANTIALIASING, number interval=500
*Node Output
CF, NT, RF, RFL, U, V
*Element Output, directions=YES
E, ER, HFL, LE, MISES, S, SDV, TEMP
*Contact Output
CFORCE, CSTRESS
** 
** HISTORY OUTPUT: H-Output-1
** 
*Output, history, time interval=0.00494
*Energy Output
ALLAE, ALLCD, ALLCW, ALLDMD, ALLFD, ALLHF, ALLIE, ALLIHE, ALLKE, ALLMW, ALLPD, ALLPW, ALLSE, ALLVD, ALLWK, ETOTAL
** 
** HISTORY OUTPUT: H-Output-2
** 
*Output, history, filter=ANTIALIASING, time interval=0.00494
*Contact Output, cpset=Punch1_Billet_Contact
CFN1, CFN2, CFN3, CFNM, CFS1, CFS2, CFS3, CFSM, CFT1, CFT2, CFT3, CFTM
*End Step
** ----------------------------------------------------------------
** 
** STEP: Interpause
** 
*Step, name=Interpause, nlgeom=YES
*Dynamic Temperature-displacement, Explicit
, 2.5
*Bulk Viscosity
0.06, 1.2
** Mass Scaling: Semi-Automatic
**               Whole Model
*Fixed Mass Scaling, factor=10000.
** 
** BOUNDARY CONDITIONS
** 
** Name: Billet1_DisplacementConstraint Type: Displacement/Rotation
*Boundary, op=NEW
Billet-1.Top_Surface, 2, 2
** Name: Billet_SymmetryAxis Type: Symmetry/Antisymmetry/Encastre
*Boundary, op=NEW
Billet-1.Symmetry_Axis, XSYMM
** Name: Die1_DisplacementConstraint Type: Symmetry/Antisymmetry/Encastre
*Boundary, op=NEW
** Name: Die1_Machine_ContactTemperature Type: Temperature
*Boundary, op=NEW
Die1-1.Machine_Contact_Surfaces, 11, 11, 20.
** Name: Die1_RemovalVelocity Type: Velocity/Angular velocity
*Boundary, op=NEW, amplitude=Tools_RemovalSpeed, type=VELOCITY
_PickedSet209, 1, 1
_PickedSet209, 2, 2, -1.
_PickedSet209, 6, 6
** Name: Die1_SymmetryAxis Type: Symmetry/Antisymmetry/Encastre
*Boundary, op=NEW
Die1-1.Symmetry_Axis, XSYMM
** Name: Punch1_Machine_ContactTemperature Type: Temperature
*Boundary, op=NEW
Punch1-1.Machine_Contact_Surface, 11, 11, 20.
** Name: Punch1_RemovalVelocity Type: Velocity/Angular velocity
*Boundary, op=NEW, amplitude=Tools_RemovalSpeed, type=VELOCITY
_PickedSet208, 1, 1
_PickedSet208, 2, 2, 1.
_PickedSet208, 6, 6
** Name: Punch1_SymmetryAxis Type: Symmetry/Antisymmetry/Encastre
*Boundary, op=NEW
Punch1-1.Symmetry_Axis, XSYMM
** Name: Punch1_Velocity Type: Velocity/Angular velocity
*Boundary, op=NEW
*Adaptive Mesh, elset=Billet-1.Body, op=NEW
** 
** INTERACTIONS
** 
** Interaction: Die1_Billet_Contact
*Contact Pair, op=DELETE, cpset=Die1_Billet_Contact
Die1-1.Billet_Contact_Surfaces, Billet-1.Tools_Contact_Surface
*Contact Pair, interaction=Tools_Billet_Frictionless_Contact, mechanical constraint=KINEMATIC, cpset=Die1_Billet_Contact
Die1-1.Billet_Contact_Surfaces, Billet-1.Tools_Contact_Surface
** Interaction: Punch1_Billet_Contact
*Contact Pair, op=DELETE, cpset=Punch1_Billet_Contact
Punch1-1.Billet_Contact_Surface, Billet-1.Tools_Contact_Surface
*Contact Pair, interaction=Tools_Billet_Frictionless_Contact, mechanical constraint=KINEMATIC, cpset=Punch1_Billet_Contact
Punch1-1.Billet_Contact_Surface, Billet-1.Tools_Contact_Surface
** Interaction: Interpause_Convection
*Sfilm
Billet-1.Surrounding_Surfaces, F, 20., 0.015
** Interaction: Interpause_Radiation
*Sradiate
Billet-1.Surrounding_Surfaces, R, 20., 0.8
** 
** OUTPUT REQUESTS
** 
*Restart, write, overlay, number interval=1, time marks=NO
** 
** FIELD OUTPUT: F-Output-1
** 
*Output, field, number interval=500
*Node Output
CF, NT, RF, RFL, U, V
*Element Output, directions=YES
E, ER, HFL, LE, MISES, S, SDV, TEMP
*Contact Output
CFORCE, CSTRESS
** 
** FIELD OUTPUT: F-Output-2
** 
*Output, field, filter=ANTIALIASING, number interval=500
*Node Output
CF, NT, RF, RFL, U, V
*Element Output, directions=YES
E, ER, HFL, LE, MISES, S, SDV, TEMP
*Contact Output
CFORCE, CSTRESS
** 
** HISTORY OUTPUT: H-Output-1
** 
*Output, history, time interval=0.005
*Energy Output
ALLAE, ALLCD, ALLCW, ALLDMD, ALLFD, ALLHF, ALLIE, ALLIHE, ALLKE, ALLMW, ALLPD, ALLPW, ALLSE, ALLVD, ALLWK, ETOTAL
*End Step
** ----------------------------------------------------------------
** 
** STEP: FinalForging
** 
*Step, name=FinalForging, nlgeom=YES
*Dynamic Temperature-displacement, Explicit
, 2.
*Bulk Viscosity
0.06, 1.2
** Mass Scaling: Semi-Automatic
**               Whole Model
*Fixed Mass Scaling, factor=10000.
** 
** BOUNDARY CONDITIONS
** 
** Name: Billet1_DisplacementConstraint Type: Displacement/Rotation
*Boundary, op=NEW
** Name: Billet_SymmetryAxis Type: Symmetry/Antisymmetry/Encastre
*Boundary, op=NEW
Billet-1.Symmetry_Axis, XSYMM
** Name: Die1_Machine_ContactTemperature Type: Temperature
*Boundary, op=NEW
Die1-1.Machine_Contact_Surfaces, 11, 11, 20.
** Name: Die1_RemovalVelocity Type: Velocity/Angular velocity
*Boundary, op=NEW
** Name: Die1_SymmetryAxis Type: Symmetry/Antisymmetry/Encastre
*Boundary, op=NEW
Die1-1.Symmetry_Axis, XSYMM
** Name: Die2_DisplacementConstraint Type: Symmetry/Antisymmetry/Encastre
*Boundary, op=NEW
_PickedSet234, ENCASTRE
** Name: Die2_Machine_ContactTemperature Type: Temperature
*Boundary, op=NEW
Die2-1.Machine_Contact_Surfaces, 11, 11, 20.
** Name: Die2_SymmetryAxis Type: Symmetry/Antisymmetry/Encastre
*Boundary, op=NEW
Die2-1.Symmetry_Axis, XSYMM
** Name: Punch1_Machine_ContactTemperature Type: Temperature
*Boundary, op=NEW
Punch1-1.Machine_Contact_Surface, 11, 11, 20.
** Name: Punch1_RemovalVelocity Type: Velocity/Angular velocity
*Boundary, op=NEW
** Name: Punch1_SymmetryAxis Type: Symmetry/Antisymmetry/Encastre
*Boundary, op=NEW
Punch1-1.Symmetry_Axis, XSYMM
** Name: Punch2_Machine_ContactTemperature Type: Temperature
*Boundary, op=NEW
Punch2-1.Machine_Contact_Surface, 11, 11, 20.
** Name: Punch2_SymmetryAxis Type: Symmetry/Antisymmetry/Encastre
*Boundary, op=NEW
Punch2-1.Symmetry_Axis, XSYMM
** Name: Punch2_Velocity Type: Velocity/Angular velocity
*Boundary, op=NEW, amplitude=Punch2_Speed, type=VELOCITY
_PickedSet233, 1, 1
_PickedSet233, 2, 2, -1.
_PickedSet233, 6, 6
*Adaptive Mesh, elset=Billet-1.Body, controls=Ada-1, frequency=5, mesh sweeps=3, op=NEW
** 
** INTERACTIONS
** 
** Interaction: Die1_Billet_Contact
*Contact Pair, op=DELETE, cpset=Die1_Billet_Contact
Die1-1.Billet_Contact_Surfaces, Billet-1.Tools_Contact_Surface
** Interaction: Die2_Billet_Contact
*Contact Pair, interaction=Tools_Billet_Contact, mechanical constraint=KINEMATIC, cpset=Die2_Billet_Contact
Die2-1.Billet_Contact_Surfaces, Billet-1.Tools_Contact_Surface
** Interaction: Punch1_Billet_Contact
*Contact Pair, op=DELETE, cpset=Punch1_Billet_Contact
Punch1-1.Billet_Contact_Surface, Billet-1.Tools_Contact_Surface
** Interaction: Punch2_Billet_Contact
*Contact Pair, interaction=Tools_Billet_Contact, mechanical constraint=KINEMATIC, cpset=Punch2_Billet_Contact
Punch2-1.Billet_Contact_Surfaces, Billet-1.Tools_Contact_Surface
** Interaction: Interpause_Convection
*Sfilm, op=NEW
** Interaction: Interpause_Radiation
*Sradiate, op=NEW
** 
** OUTPUT REQUESTS
** 
*Restart, write, overlay, number interval=1, time marks=NO
** 
** FIELD OUTPUT: F-Output-1
** 
*Output, field, number interval=500
*Node Output
CF, NT, RF, RFL, U, V
*Element Output, directions=YES
E, ER, HFL, LE, MISES, S, SDV, TEMP
*Contact Output
CFORCE, CSTRESS
** 
** FIELD OUTPUT: F-Output-2
** 
*Output, field, filter=ANTIALIASING, number interval=500
*Node Output
CF, NT, RF, RFL, U, V
*Element Output, directions=YES
E, ER, HFL, LE, MISES, S, SDV, TEMP
*Contact Output
CFORCE, CSTRESS
** 
** HISTORY OUTPUT: H-Output-1
** 
*Output, history, time interval=0.004
*Energy Output
ALLAE, ALLCD, ALLCW, ALLDMD, ALLFD, ALLHF, ALLIE, ALLIHE, ALLKE, ALLMW, ALLPD, ALLPW, ALLSE, ALLVD, ALLWK, ETOTAL
** 
** HISTORY OUTPUT: H-Output-3
** 
*Output, history, filter=ANTIALIASING, time interval=0.004
*Contact Output, cpset=Punch2_Billet_Contact
CFN1, CFN2, CFN3, CFNM, CFS1, CFS2, CFS3, CFSM, CFT1, CFT2, CFT3, CFTM
*End Step
** ----------------------------------------------------------------
** 
** STEP: AirCooling
** 
*Step, name=AirCooling, nlgeom=YES
*Dynamic Temperature-displacement, Explicit
, 100.
*Bulk Viscosity
0.06, 1.2
** Mass Scaling: Semi-Automatic
**               Whole Model
*Fixed Mass Scaling, factor=1e+06
** 
** BOUNDARY CONDITIONS
** 
** Name: Billet2-DisplacementConstraint Type: Displacement/Rotation
*Boundary, op=NEW
Billet-1.Top_Surface, 2, 2
** Name: Billet_SymmetryAxis Type: Symmetry/Antisymmetry/Encastre
*Boundary, op=NEW
Billet-1.Symmetry_Axis, XSYMM
** Name: Die1_Machine_ContactTemperature Type: Temperature
*Boundary, op=NEW
Die1-1.Machine_Contact_Surfaces, 11, 11, 20.
** Name: Die1_SymmetryAxis Type: Symmetry/Antisymmetry/Encastre
*Boundary, op=NEW
Die1-1.Symmetry_Axis, XSYMM
** Name: Die2_DisplacementConstraint Type: Symmetry/Antisymmetry/Encastre
*Boundary, op=NEW
** Name: Die2_Machine_ContactTemperature Type: Temperature
*Boundary, op=NEW
Die2-1.Machine_Contact_Surfaces, 11, 11, 20.
** Name: Die2_RemovalVelocity Type: Velocity/Angular velocity
*Boundary, op=NEW, amplitude=Tools_RemovalSpeed, type=VELOCITY
_PickedSet239, 1, 1
_PickedSet239, 2, 2, -1.
_PickedSet239, 6, 6
** Name: Die2_SymmetryAxis Type: Symmetry/Antisymmetry/Encastre
*Boundary, op=NEW
Die2-1.Symmetry_Axis, XSYMM
** Name: Punch1_Machine_ContactTemperature Type: Temperature
*Boundary, op=NEW
Punch1-1.Machine_Contact_Surface, 11, 11, 20.
** Name: Punch1_SymmetryAxis Type: Symmetry/Antisymmetry/Encastre
*Boundary, op=NEW
Punch1-1.Symmetry_Axis, XSYMM
** Name: Punch2_Machine_ContactTemperature Type: Temperature
*Boundary, op=NEW
Punch2-1.Machine_Contact_Surface, 11, 11, 20.
** Name: Punch2_RemovalVelocity Type: Velocity/Angular velocity
*Boundary, op=NEW, amplitude=Tools_RemovalSpeed, type=VELOCITY
_PickedSet238, 1, 1
_PickedSet238, 2, 2, 1.
_PickedSet238, 6, 6
** Name: Punch2_SymmetryAxis Type: Symmetry/Antisymmetry/Encastre
*Boundary, op=NEW
Punch2-1.Symmetry_Axis, XSYMM
** Name: Punch2_Velocity Type: Velocity/Angular velocity
*Boundary, op=NEW
*Adaptive Mesh, elset=Billet-1.Body, op=NEW
** 
** INTERACTIONS
** 
** Interaction: Die2_Billet_Contact
*Contact Pair, op=DELETE, cpset=Die2_Billet_Contact
Die2-1.Billet_Contact_Surfaces, Billet-1.Tools_Contact_Surface
*Contact Pair, interaction=Tools_Billet_Frictionless_Contact, mechanical constraint=KINEMATIC, cpset=Die2_Billet_Contact
Die2-1.Billet_Contact_Surfaces, Billet-1.Tools_Contact_Surface
** Interaction: Punch2_Billet_Contact
*Contact Pair, op=DELETE, cpset=Punch2_Billet_Contact
Punch2-1.Billet_Contact_Surfaces, Billet-1.Tools_Contact_Surface
*Contact Pair, interaction=Tools_Billet_Frictionless_Contact, mechanical constraint=KINEMATIC, cpset=Punch2_Billet_Contact
Punch2-1.Billet_Contact_Surfaces, Billet-1.Tools_Contact_Surface
** Interaction: AirCooling_Convection_and_Radiation
*Sfilm
Billet-1.Surrounding_Surfaces, F, 20., 2.
** 
** OUTPUT REQUESTS
** 
*Restart, write, overlay, number interval=1, time marks=NO
** 
** FIELD OUTPUT: F-Output-1
** 
*Output, field, number interval=200
*Node Output
CF, NT, RF, RFL, U, V
*Element Output, directions=YES
E, ER, HFL, LE, MISES, S, SDV, TEMP
*Contact Output
CFORCE, CSTRESS
** 
** FIELD OUTPUT: F-Output-2
** 
*Output, field, filter=ANTIALIASING, number interval=200
*Node Output
CF, NT, RF, RFL, U, V
*Element Output, directions=YES
E, ER, HFL, LE, MISES, S, SDV, TEMP
*Contact Output
CFORCE, CSTRESS
** 
** HISTORY OUTPUT: H-Output-1
** 
*Output, history
*Energy Output
ALLAE, ALLCD, ALLCW, ALLDMD, ALLFD, ALLHF, ALLIE, ALLIHE, ALLKE, ALLMW, ALLPD, ALLPW, ALLSE, ALLVD, ALLWK, ETOTAL
*End Step
