*Heading
** Job name: Upsetting Model name: Upsetting
** Generated by: Abaqus/CAE 2017
*Preprint, echo=NO, model=NO, history=NO, contact=NO
**
** PARTS
**
*Part, name=Punch
*Node
      1,           3.,   10.3464909
      2,    2.8499999,   10.3464909
      3,   2.70000005,   10.3464909
      4,   2.54999995,   10.3464909
      5,    2.4000001,   10.3464909
      6,         2.25,   10.3464909
      7,    2.0999999,   10.3464909
      8,   1.95000005,   10.3464909
      9,   1.79999995,   10.3464909
     10,   1.64999998,   10.3464909
     11,          1.5,   10.3464909
     12,   1.35000002,   10.3464909
     13,   1.20000005,   10.3464909
     14,   1.04999995,   10.3464909
     15,  0.899999976,   10.3464909
     16,         0.75,   10.3464909
     17,  0.600000024,   10.3464909
     18,  0.449999988,   10.3464909
     19,  0.300000012,   10.3464909
     20,  0.150000006,   10.3464909
** ... 148 like lines cut
*Element, type=CAX4T
  1,   1,   2,  23,  22
  2,   2,   3,  24,  23
  3,   3,   4,  25,  24
  4,   4,   5,  26,  25
  5,   5,   6,  27,  26
  6,   6,   7,  28,  27
  7,   7,   8,  29,  28
  8,   8,   9,  30,  29
  9,   9,  10,  31,  30
 10,  10,  11,  32,  31
 11,  11,  12,  33,  32
 12,  12,  13,  34,  33
 13,  13,  14,  35,  34
 14,  14,  15,  36,  35
 15,  15,  16,  37,  36
 16,  16,  17,  38,  37
 17,  17,  18,  39,  38
 18,  18,  19,  40,  39
 19,  19,  20,  41,  40
 20,  20,  21,  42,  41
** ... 120 like lines cut
*Nset, nset=Symmetry_Axis, generate
  21,  168,   21
*Elset, elset=Symmetry_Axis, generate
  20,  140,   20
*Nset, nset=Body, generate
   1,  168,    1
*Elset, elset=Body, generate
   1,  140,    1
*Nset, nset=Machine_Contact_Surface, generate
  1,  21,   1
*Elset, elset=Machine_Contact_Surface, generate
  1,  20,   1
*Elset, elset=_Specimen_Contact_Surface_S3, internal, generate
 121,  140,    1
*Surface, type=ELEMENT, name=Specimen_Contact_Surface
_Specimen_Contact_Surface_S3, S3
*Elset, elset=_Lateral_Surface_S4, internal, generate
   1,  121,   20
*Surface, type=ELEMENT, name=Lateral_Surface
_Lateral_Surface_S4, S4
** Section: Punch
*Solid Section, elset=Body, material=ToolSteel
,
*End Part
**  
*Part, name=Specimen
*Node
      1,           0.,           5.
      2, 0.0972222239,           5.
      3,  0.194444448,           5.
      4,  0.291666657,           5.
      5,  0.388888896,           5.
      6,  0.486111104,           5.
      7,  0.583333313,           5.
      8,  0.680555582,           5.
      9,  0.777777791,           5.
     10,        0.875,           5.
     11,  0.972222209,           5.
     12,   1.06944442,           5.
     13,   1.16666663,           5.
     14,   1.26388884,           5.
     15,   1.36111116,           5.
     16,   1.45833337,           5.
     17,   1.55555558,           5.
     18,   1.65277779,           5.
     19,         1.75,           5.
     20,           0.,    5.0999999
** ... 474 like lines cut
*Element, type=CAX4T
  1,   1,   2,  21,  20
  2,   2,   3,  22,  21
  3,   3,   4,  23,  22
  4,   4,   5,  24,  23
  5,   5,   6,  25,  24
  6,   6,   7,  26,  25
  7,   7,   8,  27,  26
  8,   8,   9,  28,  27
  9,   9,  10,  29,  28
 10,  10,  11,  30,  29
 11,  11,  12,  31,  30
 12,  12,  13,  32,  31
 13,  13,  14,  33,  32
 14,  14,  15,  34,  33
 15,  15,  16,  35,  34
 16,  16,  17,  36,  35
 17,  17,  18,  37,  36
 18,  18,  19,  38,  37
 19,  20,  21,  40,  39
 20,  21,  22,  41,  40
** ... 430 like lines cut
*Nset, nset=Symmetry_Axis, generate
   1,  476,   19
*Elset, elset=Symmetry_Axis, generate
   1,  433,   18
*Nset, nset=Symmetry_Plane, generate
  1,  19,   1
*Elset, elset=Symmetry_Plane, generate
  1,  18,   1
*Nset, nset=Body, generate
   1,  494,    1
*Elset, elset=Body, generate
   1,  450,    1
*Elset, elset=_Punch_Contact_Surface_S3, internal, generate
 433,  450,    1
*Surface, type=ELEMENT, name=Punch_Contact_Surface
_Punch_Contact_Surface_S3, S3
*Elset, elset=_Lateral_Surface_S2, internal, generate
  18,  450,   18
*Surface, type=ELEMENT, name=Lateral_Surface
_Lateral_Surface_S2, S2
** Section: Specimen
*Solid Section, elset=Body, material=MildSteel_20MnCr5_1
,
*End Part
**  
**
** ASSEMBLY
**
*Assembly, name=Assembly
**  
*Instance, name=Specimen, part=Specimen
          0.,          -5.,           0.
*End Instance
**  
*Instance, name=Punch, part=Punch
          0., -6.84649085998535,           0.
*End Instance
**  
*Node
      1,           0.,          3.5,           0.
*Nset, nset=_PickedSet110, internal
 1,
*Nset, nset=_PickedSet111, internal, instance=Punch, generate
   1,  168,    1
*Elset, elset=_PickedSet111, internal, instance=Punch, generate
   1,  140,    1
*Nset, nset=_PickedSet208, internal
 1,
*Nset, nset=_PickedSet209, internal, instance=Specimen, generate
   1,  494,    1
*Elset, elset=_PickedSet209, internal, instance=Specimen, generate
   1,  450,    1
*Nset, nset=_PickedSet210, internal, instance=Specimen, generate
   1,  494,    1
*Elset, elset=_PickedSet210, internal, instance=Specimen, generate
   1,  450,    1
*Nset, nset=_PickedSet212, internal
 1,
** Constraint: Punch_Rigidity
*Rigid Body, ref node=_PickedSet110, elset=_PickedSet111
*End Assembly
*Amplitude, name=Punch_RemovalSpeed
             0.,              0.,             0.2,              1.,             0.4,              0.,             0.5,              0.
*Amplitude, name=Punch_Speed, definition=DECAY
             0.,           0.025,              0.,            100.
** 
** MATERIALS
** 
*Material, name=MildSteel_20MnCr5_1
*Conductivity
 42.7493, 20.
 42.8068, 30.
 42.9128, 40.
 43.0066, 50.
 43.0883, 60.
 43.1578, 70.
 43.2152, 80.
 43.2606, 90.
 43.2939,100.
 43.3153,110.
 43.3247,120.
 43.3224,130.
 43.3084,140.
 43.2829,150.
  43.246,160.
 43.1978,170.
 43.1386,180.
 43.0684,190.
 42.9877,200.
 42.8965,210.
** ... 39 like lines cut
*Density
 7.81964e-09, 20.
 7.81817e-09, 30.
  7.8152e-09, 40.
 7.81222e-09, 50.
 7.80923e-09, 60.
 7.80622e-09, 70.
  7.8032e-09, 80.
 7.80017e-09, 90.
 7.79712e-09,100.
 7.79405e-09,110.
 7.79097e-09,120.
 7.78788e-09,130.
 7.78477e-09,140.
 7.78165e-09,150.
 7.77851e-09,160.
 7.77536e-09,170.
  7.7722e-09,180.
 7.76902e-09,190.
 7.76582e-09,200.
 7.76262e-09,210.
** ... 39 like lines cut
*Depvar
     13,
*Expansion, zero=20.
 1.25868e-05, 30.
 1.26229e-05, 40.
 1.26589e-05, 50.
 1.26949e-05, 60.
  1.2731e-05, 70.
  1.2767e-05, 80.
 1.28031e-05, 90.
 1.28391e-05,100.
 1.28752e-05,110.
 1.29113e-05,120.
 1.29473e-05,130.
 1.29834e-05,140.
 1.30195e-05,150.
 1.30556e-05,160.
 1.30917e-05,170.
 1.31279e-05,180.
  1.3164e-05,190.
 1.32001e-05,200.
 1.32362e-05,210.
 1.32724e-05,220.
** ... 38 like lines cut
*Specific Heat
 4.4758e+08, 20.
 4.4982e+08, 30.
  4.542e+08, 40.
 4.5846e+08, 50.
 4.6263e+08, 60.
 4.6672e+08, 70.
 4.7075e+08, 80.
 4.7474e+08, 90.
  4.787e+08,100.
 4.8264e+08,110.
 4.8657e+08,120.
  4.905e+08,130.
 4.9443e+08,140.
 4.9839e+08,150.
 5.0237e+08,160.
 5.0637e+08,170.
 5.1042e+08,180.
  5.145e+08,190.
 5.1864e+08,200.
 5.2282e+08,210.
** ... 39 like lines cut
*User Material, constants=1
1.,
*Material, name=ToolSteel
*Conductivity
 46.6,
*Density
 7.81e-09,
*Elastic
210000., 0.3
*Specific Heat
 4.75e+08,
** 
** INTERACTION PROPERTIES
** 
*Surface Interaction, name=Punch_Specimen_Contact
1.,
*Friction, slip tolerance=0.005
 0.05,
*Gap Conductance, pressure
 0.,   0.
15.,  50.
40.,1000.
** 
** PHYSICAL CONSTANTS
** 
*Physical Constants, absolute zero=-273.15, stefan boltzmann=5.6704e-11, universal gas=8314.47
** 
** PREDEFINED FIELDS
** 
** Name: Punch_Initial_Temperature   Type: Temperature
*Initial Conditions, type=TEMPERATURE
Punch.Body, 20.
** Name: Specimen_Initial_Temperature   Type: Temperature
*Initial Conditions, type=TEMPERATURE
Specimen.Body, 20.
** 
** INTERACTIONS
** 
** Interaction: Punch_Specimen_Contact
*Contact Pair, interaction=Punch_Specimen_Contact, type=SURFACE TO SURFACE
Specimen.Punch_Contact_Surface, Punch.Specimen_Contact_Surface
** ----------------------------------------------------------------
** 
** STEP: Deformation
** 
*Step, name=Deformation, nlgeom=YES, inc=1000
*Coupled Temperature-displacement, creep=none, deltmx=10.
0.25, 75., 1e-08, 0.25
** 
** BOUNDARY CONDITIONS
** 
** Name: Punch_Machine_ContactTemperature Type: Temperature
*Boundary
Punch.Machine_Contact_Surface, 11, 11, 20.
** Name: Punch_Symmetry_Axis Type: Symmetry/Antisymmetry/Encastre
*Boundary
Punch.Symmetry_Axis, XSYMM
** Name: Punch_Velocity Type: Velocity/Angular velocity
*Boundary, amplitude=Punch_Speed, type=VELOCITY
_PickedSet208, 1, 1
_PickedSet208, 2, 2, -1.
_PickedSet208, 6, 6
** Name: Specimen_Symmetry_Axis Type: Symmetry/Antisymmetry/Encastre
*Boundary
Specimen.Symmetry_Axis, XSYMM
** Name: Specimen_Symmetry_Plane Type: Symmetry/Antisymmetry/Encastre
*Boundary
Specimen.Symmetry_Plane, YSYMM
*Adaptive Mesh Controls, name=Ada-1, geometric enhancement=YES
1., 0.
** 
** INTERACTIONS
** 
** Interaction: Convection
*Sfilm
Specimen.Lateral_Surface, F, 20., 0.015
** Interaction: Radiation
*Sradiate
Specimen.Lateral_Surface, R, 20., 0.8
** 
** OUTPUT REQUESTS
** 
*Restart, write, frequency=1
** 
** FIELD OUTPUT: F-Output-1
** 
*Output, field
*Node Output
CF, NT, RF, RFL, TF, U, V
*Element Output, directions=YES
E, ER, HFL, LE, MISES, S, SDV, TEMP
*Contact Output
CDISP, CFORCE, CLINELOAD, CSTRESS, CSTRESSETOS
** 
** HISTORY OUTPUT: H-Output-1
** 
*Output, history
*Contact Output
CDISP, CFN1, CFN2, CFN3, CFNM, CFS1, CFS2, CFS3, CFSM, CFT1, CFT2, CFT3, CFTM, CSTRESS
*End Step
